VERS 210628 5799 104749 L104749
MODE SEQ
NAME Wide Field Phasing Testbed
AUTH 
NOTE 0 PDR Baseline 2
NOTE 4
PFIL 0 0 0
LANG 0
UNIT MM X W X CM MR CPMM
FLOA
ENVD 20 1 0
GFAC 0 0
GCAT SCHOTT GCLEF_CDR MISC BAM DK_OHARAPREFERRED 
RAIM 0 2 1 1 0 1 0 0 0 1
PUSH 828.40045191069646 322.7411704831726 0 0 0 0
SDMA 0 1 0
OMMA 1 1
FTYP 1 0 9 5 0 0 0 9
ROPD 2
HYPR 0
PICB 1
XFLN 0 7 -7 7 -7 0 -10 10 0
YFLN 0 7 -7 -7 7 10 0 0 -10
FWGN 1 1 1 1 1 1 1 1 1
VDXN 0 0 0 0 0 0 0 0 0
VDYN 0 0 0 0 0 0 0 0 0
VCXN 0 0 0 0 0 0 0 0 0
VCYN 0 0 0 0 0 0 0 0 0
VANN 0 0 0 0 0 0 0 0 0
XAIM 0 0 0 0 0 0 0 0 0
YAIM 0 0 0 0 0 0 0 0 0
ZAIM 0 0 0 0 0 0 0 0 0
WAVM 1 0.59999999999999998 1
WAVM 2 1.0269999999999999 1
WAVM 3 1.3580000000000001 1
WAVM 4 0.75 1
WAVM 5 0.90000000000000002 1
WAVM 6 0.55000000000000004 1
WAVM 7 0.55000000000000004 1
WAVM 8 0.55000000000000004 1
WAVM 9 0.55000000000000004 1
WAVM 10 0.55000000000000004 1
WAVM 11 0.55000000000000004 1
WAVM 12 0.55000000000000004 1
WAVM 13 0.55000000000000004 1
WAVM 14 0.55000000000000004 1
WAVM 15 0.55000000000000004 1
WAVM 16 0.55000000000000004 1
WAVM 17 0.55000000000000004 1
WAVM 18 0.55000000000000004 1
WAVM 19 0.55000000000000004 1
WAVM 20 0.55000000000000004 1
WAVM 21 0.55000000000000004 1
WAVM 22 0.55000000000000004 1
WAVM 23 0.55000000000000004 1
WAVM 24 0.55000000000000004 1
PWAV 1
POLS 1 0 1 0 0 1 0
GLRS 63 0
GSTD 0 100.000 100.000 100.000 100.000 100.000 100.000 0 1 1 0 0 1 1 1 1 1 1
NSCD 100 500 0 9.9999999999999995e-07 10 9.9999999999999995e-07 0 0 0 0 0 0 1000000 0 2
COFN QF "COATING.DAT" "SCATTER_PROFILE.DAT" "ABG_DATA.DAT" "PROFILE.GRD"
COFN COATING.DAT SCATTER_PROFILE.DAT ABG_DATA.DAT PROFILE.GRD
LUID 40112
SURF 0
  SSID 0
  COMM Fiber
  TYPE STANDARD
  FIMP 

  CURV -4.862146988418149934E-02 0 0 0 0 ""
  HIDE 0 0 0 0 0 0 0 0 0 0
  MIRR 2 0
  SLAB 12
  DISZ 64.912333333329997
  DIAM 10 0 0 0 1 ""
  MEMA 10 0 0 0 1 ""
  POPS 0 0 0 0 0 0 0 0 1 1 1 1 0 0 0 0
SURF 1
  SSID 1
  TYPE COORDBRK
  FIMP 

  CURV 0.0 0 0.0 0.0 0
  HIDE 0 0 0 0 0 0 0 0 0 0
  MIRR 2 0
  SLAB 44
  PARM 1 0
  PARM 2 0
  PARM 3 20
  PARM 4 0
  PARM 5 0
  PARM 6 0
  DISZ 0
  DIAM 0 0 0 0 1 ""
  MEMA 0 0 0 0 1 ""
  POPS 0 0 0 0 0 0 0 0 1 1 1 1 0 0 0 0
SURF 2
  SSID 2
  COMM FM1
  TYPE STANDARD
  FIMP 

  CURV 0.0 0 0 0 0 ""
  HIDE 0 0 0 0 0 0 0 0 0 0
  MIRR 2 12.699999999999999
  SLAB 45
  DISZ 0
  GLAS MIRROR 0 0 1.5 40 0 0 0 0 0 0 
  DIAM 15.213451209678137 0 0 0 1 ""
  MEMA 25.399999999999999 1 0 0 1 ""
  POPS 0 0 0 0 0 0 0 0 1 1 1 1 0 0 0 0
SURF 3
  SSID 3
  TYPE COORDBRK
  FIMP 

  CURV 0.0 0 0.0 0.0 0
  HIDE 0 0 0 0 0 0 0 0 0 0
  MIRR 2 0
  SLAB 46
  PARM 1 0
  PARM 2 0
  PARM 3 20
  PARM 4 0
  PARM 5 0
  PARM 6 0
  DISZ -131.535
  DIAM 0 0 0 0 1 ""
  MEMA 0 0 0 0 1 ""
  POPS 0 0 0 0 0 0 0 0 1 1 1 1 0 0 0 0
SURF 4
  SSID 5
  TYPE COORDBRK
  FIMP 

  CURV 0.0 0 0.0 0.0 0
  HIDE 0 0 0 0 0 0 0 0 0 0
  MIRR 2 0
  SLAB 48
  PARM 1 0
  PARM 2 0
  PARM 3 -20.874950702829999
  PARM 4 0
  PARM 5 0
  PARM 6 0
  DISZ -6.4473684210529996
  DIAM 0 0 0 0 1 ""
  MEMA 0 0 0 0 1 ""
  POPS 0 0 0 0 0 0 0 0 1 1 1 1 0 0 0 0
SURF 5
  SSID 6
  COMM OAP1-A
  TYPE IRREGULA
  FIMP 

  CURV 2.631578947368420993E-03 0 0 0 0 ""
  HIDE 0 0 0 0 0 0 0 0 0 0
  MIRR 1 20
  SLAB 50
  PARM 1 0
  PARM 2 -70
  PARM 3 0
  PARM 4 0
  PARM 5 0
  PARM 6 0
  PARM 7 0
  PARM 8 0
  DISZ 6.4473684210529996
  GLAS MIRROR 0 0 1.5 40 0 0 0 0 0 0 
  CONI -1
  DIAM 38.100000000000001 1 0 0 1 ""
  MEMA 38.100000000000001 1 0 0 1 ""
  POPS 0 0 0 0 0 0 0 0 1 1 1 1 0 0 0 0
  CLAP 0 38.100000000000001 0
SURF 6
  SSID 7
  TYPE COORDBRK
  FIMP 

  CURV 0.0 0 0.0 0.0 0
  HIDE 0 0 0 0 0 0 0 0 0 0
  MIRR 2 0
  SLAB 51
  PARM 1 0
  PARM 2 0
  PARM 3 0
  PARM 4 0
  PARM 5 0
  PARM 6 0
  DISZ 170.86510992506751
  DIAM 0 0 0 0 1 ""
  MEMA 0 0 0 0 1 ""
  POPS 0 0 0 0 0 0 0 0 1 1 1 1 0 0 0 0
SURF 7
  SSID 15
  TYPE STANDARD
  FIMP 

  CURV 0.0 0 0 0 0 ""
  HIDE 0 0 0 0 0 0 0 0 0 0
  MIRR 2 0
  SLAB 12
  DISZ 211.27363414681676
  DIAM 13.350426582803333 0 0 0 1 ""
  MEMA 13.350426582803333 0 0 0 1 ""
  POPS 0 0 0 0 0 0 0 0 1 1 1 1 0 0 0 0
SURF 8
  SSID 16
  TYPE COORDBRK
  FIMP 

  CURV 0.0 0 0.0 0.0 0
  HIDE 0 0 0 0 0 0 0 0 0 0
  MIRR 2 0
  SLAB 53
  PARM 1 0
  PARM 2 0
  PARM 3 0
  PARM 4 0
  PARM 5 0
  PARM 6 0
  DISZ 6.4473684210529996
  DIAM 0 0 0 0 1 ""
  MEMA 0 0 0 0 1 ""
  POPS 0 0 0 0 0 0 0 0 1 1 1 1 0 0 0 0
SURF 9
  SSID 17
  COMM OAP1-B
  TYPE IRREGULA
  FIMP 

  CURV -2.631578947368420993E-03 0 0 0 0 ""
  HIDE 0 0 0 0 0 0 0 0 0 0
  MIRR 1 20
  SLAB 54
  PARM 1 0
  PARM 2 70
  PARM 3 0
  PARM 4 0
  PARM 5 0
  PARM 6 0
  PARM 7 0
  PARM 8 0
  DISZ -6.4473684210529996
  GLAS MIRROR 0 0 1.5 40 0 0 0 0 0 0 
  CONI -1
  DIAM 38.100000000000001 1 0 0 1 ""
  MEMA 38.100000000000001 2 5 0 1 ""
  POPS 0 0 0 0 0 0 0 0 1 1 1 1 0 0 0 0
  CLAP 0 38.100000000000001 0
SURF 10
  SSID 18
  TYPE COORDBRK
  FIMP 

  CURV 0.0 0 0.0 0.0 0
  HIDE 0 0 0 0 0 0 0 0 0 0
  MIRR 2 0
  SLAB 55
  PARM 1 0
  PARM 2 0
  PARM 3 20.874950702829999
  PARM 4 0
  PARM 5 0
  PARM 6 0
  DISZ -256.447
  DIAM 0 0 0 0 1 ""
  MEMA 0 0 0 0 1 ""
  POPS 0 0 0 0 0 0 0 0 1 1 1 1 0 0 0 0
SURF 11
  SSID 20
  TYPE COORDBRK
  FIMP 

  CURV 0.0 0 0.0 0.0 0
  HIDE 0 0 0 0 0 0 0 0 0 0
  MIRR 2 0
  SLAB 56
  PARM 1 0
  PARM 2 0
  PARM 3 -20
  PARM 4 0
  PARM 5 0
  PARM 6 0
  DISZ 0
  DIAM 0 0 0 0 1 ""
  MEMA 0 0 0 0 1 ""
  POPS 0 0 0 0 0 0 0 0 1 1 1 1 0 0 0 0
SURF 12
  SSID 21
  COMM FM2
  TYPE STANDARD
  FIMP 

  CURV 0.0 0 0 0 0 ""
  HIDE 0 0 0 0 0 0 0 0 0 0
  MIRR 1 12.699999999999999
  SLAB 57
  DISZ 0
  GLAS MIRROR 0 0 1.5 40 0 0 0 0 0 0 
  DIAM 25.399999999999999 1 0 0 1 ""
  MEMA 25.399999999999999 1 6 0 1 ""
  POPS 0 0 0 0 0 0 0 0 1 1 1 1 0 0 0 0
  CLAP 0 25.399999999999999 0
SURF 13
  SSID 22
  TYPE COORDBRK
  FIMP 

  CURV 0.0 0 0.0 0.0 0
  HIDE 0 0 0 0 0 0 0 0 0 0
  MIRR 2 0
  SLAB 58
  PARM 1 0
  PARM 2 0
  PARM 3 -20
  PARM 4 0
  PARM 5 0
  PARM 6 0
  DISZ 136.447
  DIAM 0 0 0 0 1 ""
  MEMA 0 0 0 0 1 ""
  POPS 0 0 0 0 0 0 0 0 1 1 1 1 0 0 0 0
SURF 14
  SSID 24
  TYPE COORDBRK
  FIMP 

  CURV 0.0 0 0.0 0.0 0
  HIDE 0 0 0 0 0 0 0 0 0 0
  MIRR 2 0
  SLAB 80
  PARM 1 0
  PARM 2 0
  PARM 3 20.874950702829999
  PARM 4 0
  PARM 5 0
  PARM 6 0
  DISZ 6.4473684210529996
  DIAM 0 0 0 0 1 ""
  MEMA 0 0 0 0 1 ""
  POPS 0 0 0 0 0 0 0 0 1 1 1 1 0 0 0 0
SURF 15
  SSID 25
  COMM OAP1-C
  TYPE IRREGULA
  FIMP 

  CURV -2.631578947368420993E-03 0 0 0 0 ""
  HIDE 0 0 0 0 0 0 0 0 0 0
  MIRR 1 20
  SLAB 81
  PARM 1 0
  PARM 2 -70
  PARM 3 0
  PARM 4 0
  PARM 5 0
  PARM 6 0
  PARM 7 0
  PARM 8 0
  DISZ -6.4473684210529996
  GLAS MIRROR 0 0 1.5 40 0 0 0 0 0 0 
  CONI -1
  DIAM 38.100000000000001 1 0 0 1 ""
  MEMA 38.100000000000001 2 5 0 1 ""
  POPS 0 0 0 0 0 0 0 0 1 1 1 1 0 0 0 0
  CLAP 0 38.100000000000001 0
SURF 16
  SSID 26
  TYPE COORDBRK
  FIMP 

  CURV 0.0 0 0.0 0.0 0
  HIDE 0 0 0 0 0 0 0 0 0 0
  MIRR 2 0
  SLAB 82
  PARM 1 0
  PARM 2 0
  PARM 3 0
  PARM 4 0
  PARM 5 0
  PARM 6 0
  DISZ -175
  DIAM 0 0 0 0 1 ""
  MEMA 0 0 0 0 1 ""
  POPS 0 0 0 0 0 0 0 0 1 1 1 1 0 0 0 0
SURF 17
  SSID 39623
  TYPE STANDARD
  FIMP 

  CURV 0.0 0 0 0 0 ""
  HIDE 0 0 0 0 0 0 0 0 0 0
  MIRR 2 0
  SLAB 102
  DISZ -224.20500000000001
  DIAM 13.443688173679273 0 0 0 1 ""
  MEMA 13.443688173679273 0 0 0 1 ""
  POPS 0 0 0 0 0 0 0 0 1 1 1 1 0 0 0 0
SURF 18
  SSID 37
  TYPE COORDBRK
  FIMP 

  CURV 0.0 0 0.0 0.0 0
  HIDE 0 0 0 0 0 0 0 0 0 0
  MIRR 2 0
  SLAB 86
  PARM 1 0
  PARM 2 0
  PARM 3 0
  PARM 4 0
  PARM 5 0
  PARM 6 0
  DISZ -6.4473684210529996
  DIAM 0 0 0 0 1 ""
  MEMA 0 0 0 0 1 ""
  POPS 0 0 0 0 0 0 0 0 1 1 1 1 0 0 0 0
SURF 19
  SSID 38
  COMM OAP1-D
  TYPE IRREGULA
  FIMP 

  CURV 2.631578947368420993E-03 0 0 0 0 ""
  HIDE 0 0 0 0 0 0 0 0 0 0
  MIRR 1 20
  SLAB 87
  PARM 1 0
  PARM 2 70
  PARM 3 0
  PARM 4 0
  PARM 5 0
  PARM 6 0
  PARM 7 0
  PARM 8 0
  DISZ 6.4473684210529996
  GLAS MIRROR 0 0 1.5 40 0 0 0 0 0 0 
  CONI -1
  DIAM 38.100000000000001 1 0 0 1 ""
  MEMA 38.100000000000001 2 5 0 1 ""
  POPS 0 0 0 0 0 0 0 0 1 1 1 1 0 0 0 0
  CLAP 0 38.100000000000001 0
SURF 20
  SSID 39
  TYPE COORDBRK
  FIMP 

  CURV 0.0 0 0.0 0.0 0
  HIDE 0 0 0 0 0 0 0 0 0 0
  MIRR 2 0
  SLAB 88
  PARM 1 0
  PARM 2 0
  PARM 3 -20.874950702829999
  PARM 4 0
  PARM 5 0
  PARM 6 0
  DISZ 602.97564820730008
  DIAM 0 0 0 0 1 ""
  MEMA 0 0 0 0 1 ""
  POPS 0 0 0 0 0 0 0 0 1 1 1 1 0 0 0 0
SURF 21
  SSID 42
  TYPE COORDBRK
  FIMP 

  CURV 0.0 0 0.0 0.0 0
  HIDE 0 0 0 0 0 0 0 0 0 0
  MIRR 2 0
  SLAB 24
  PARM 1 0
  PARM 2 0
  PARM 3 8.0001999999999995
  PARM 4 0
  PARM 5 0
  PARM 6 0
  DISZ 1.9782
  DIAM 0 0 0 0 1 ""
  MEMA 0 0 0 0 1 ""
  POPS 0 0 0 0 0 0 0 0 1 1 1 1 0 0 0 0
SURF 22
  SSID 43
  COMM OAP2-A
  TYPE IRREGULA
  FIMP 

  CURV -1.235957972485103498E-03 0 0 0 0 ""
  HIDE 0 0 0 0 0 0 0 0 0 0
  MIRR 1 30
  SLAB 25
  PARM 1 0
  PARM 2 -56.578499999999998
  PARM 3 0
  PARM 4 0
  PARM 5 0
  PARM 6 0
  PARM 7 0
  PARM 8 0
  DISZ -1.9782
  GLAS MIRROR 0 0 1.5 40 0 0 0 0 0 0 
  CONI -1
  DIAM 50.799999999999997 1 0 0 1 ""
  MEMA 50.799999999999997 1 0 0 1 ""
  POPS 0 0 0 0 0 0 0 0 1 1 1 1 0 0 0 0
  CLAP 0 50.799999999999997 0
SURF 23
  SSID 44
  TYPE COORDBRK
  FIMP 

  CURV 0.0 0 0.0 0.0 0
  HIDE 0 0 0 0 0 0 0 0 0 0
  MIRR 2 0
  SLAB 26
  PARM 1 0
  PARM 2 0
  PARM 3 0
  PARM 4 0
  PARM 5 0
  PARM 6 0
  DISZ -404.54450000000003
  DIAM 0 0 0 0 1 ""
  MEMA 0 0 0 0 1 ""
  POPS 0 0 0 0 0 0 0 0 1 1 1 1 0 0 0 0
SURF 24
  SSID 46
  TYPE COORDBRK
  FIMP 

  CURV 0.0 0 0.0 0.0 0
  HIDE 0 0 0 0 0 0 0 0 0 0
  MIRR 2 0
  SLAB 27
  PARM 1 0
  PARM 2 0
  PARM 3 -8.0001999999999995
  PPAR 3 21 -1.000000000000E+00 0.000000000000E+00 0
  PARM 4 0
  PARM 5 0
  PARM 6 0
  DISZ 0
  DIAM 0 0 0 0 1 ""
  MEMA 0 0 0 0 1 ""
  POPS 0 0 0 0 0 0 0 0 1 1 1 1 0 0 0 0
SURF 25
  SSID 47
  COMM M1 PTT
  STOP
  TYPE STANDARD
  FIMP 

  CURV 0.0 0 0 0 0 ""
  HIDE 0 0 0 0 0 0 0 0 0 0
  MIRR 1 82.75
  SLAB 28
  DISZ 0
  GLAS MIRROR 0 0 1.5 40 0 0 0 0 0 0 
  DIAM 24.940999999999999 1 0 0 1 ""
  MEMA 24.940999999999999 0 0 0 1 ""
  POPS 0 0 0 0 0 0 0 0 1 1 1 1 0 0 0 0
  ELAP 24.9405 25.184999999999999 0
SURF 26
  SSID 48
  TYPE COORDBRK
  FIMP 

  CURV 0.0 0 0.0 0.0 0
  HIDE 0 0 0 0 0 0 0 0 0 0
  MIRR 2 0
  SLAB 29
  PARM 1 0
  PARM 2 0
  PARM 3 -8.0001999999999995
  PPAR 3 24 1.000000000000E+00 0.000000000000E+00 0
  PARM 4 0
  PARM 5 0
  PARM 6 0
  DISZ 406.51581676307273
  DIAM 0 0 0 0 1 ""
  MEMA 0 0 0 0 1 ""
  POPS 0 0 0 0 0 0 0 0 1 1 1 1 0 0 0 0
SURF 27
  SSID 49
  TYPE COORDBRK
  FIMP 

  CURV 0.0 0 0.0 0.0 0
  HIDE 0 0 0 0 0 0 0 0 0 0
  MIRR 2 0
  SLAB 30
  PARM 1 0
  PARM 2 0
  PARM 3 0
  PARM 4 0
  PARM 5 180
  PARM 6 0
  DISZ 1.9782
  DIAM 0 0 0 0 1 ""
  MEMA 0 0 0 0 1 ""
  POPS 0 0 0 0 0 0 0 0 1 1 1 1 0 0 0 0
SURF 28
  SSID 50
  COMM OAP2-B
  TYPE IRREGULA
  FIMP 

  CURV -1.235957972485103498E-03 0 35 1 0 ""
  HIDE 0 0 0 0 0 0 0 0 0 0
  MIRR 1 30
  SLAB 31
  PARM 1 0
  PARM 2 -56.578499999999998
  PPAR 2 22 1.000000000000E+00 0.000000000000E+00 0
  PARM 3 0
  PARM 4 0
  PARM 5 0
  PARM 6 0
  PARM 7 0
  PARM 8 0
  DISZ -1.9782
  GLAS MIRROR 0 0 1.5 40 0 0 0 0 0 0 
  CONI -1
  DIAM 50.799999999999997 1 0 0 1 ""
  MEMA 50.799999999999997 2 22 0 1 ""
  POPS 0 0 0 0 0 0 0 0 1 1 1 1 0 0 0 0
  CLAP 0 50.799999999999997 0
SURF 29
  SSID 51
  TYPE COORDBRK
  FIMP 

  CURV 0.0 0 0.0 0.0 0
  HIDE 0 0 0 0 0 0 0 0 0 0
  MIRR 2 0
  SLAB 32
  PARM 1 0
  PARM 2 0
  PARM 3 -8.0001999999999995
  PPAR 3 21 -1.000000000000E+00 0.000000000000E+00 0
  PARM 4 0
  PARM 5 0
  PARM 6 0
  DISZ -813.0557
  DIAM 0 0 0 0 1 ""
  MEMA 0 0 0 0 1 ""
  POPS 0 0 0 0 0 0 0 0 1 1 1 1 0 0 0 0
SURF 30
  SSID 53
  TYPE COORDBRK
  FIMP 

  CURV 0.0 0 0.0 0.0 0
  HIDE 0 0 0 0 0 0 0 0 0 0
  MIRR 2 0
  SLAB 34
  PARM 1 0
  PARM 2 0
  PARM 3 8.0001999999999995
  PPAR 3 21 1.000000000000E+00 0.000000000000E+00 0
  PARM 4 0
  PARM 5 0
  PARM 6 0
  DISZ -1.9782
  DIAM 0 0 0 0 1 ""
  MEMA 0 0 0 0 1 ""
  POPS 0 0 0 0 0 0 0 0 1 1 1 1 0 0 0 0
SURF 31
  SSID 54
  COMM OAP2-C
  TYPE IRREGULA
  FIMP 

  CURV 1.235957972485103498E-03 0 42 -1 0 ""
  HIDE 0 0 0 0 0 0 0 0 0 0
  MIRR 1 30
  SLAB 35
  PARM 1 0
  PARM 2 56.578499999999998
  PPAR 2 22 -1.000000000000E+00 0.000000000000E+00 0
  PARM 3 0
  PARM 4 0
  PARM 5 0
  PARM 6 0
  PARM 7 0
  PARM 8 0
  DISZ 1.9782
  GLAS MIRROR 0 0 1.5 40 0 0 0 0 0 0 
  CONI -1
  DIAM 50.799999999999997 1 0 0 1 ""
  MEMA 50.799999999999997 2 22 0 1 ""
  POPS 0 0 0 0 0 0 0 0 1 1 1 1 0 0 0 0
  CLAP 0 50.799999999999997 0
SURF 32
  SSID 55
  TYPE COORDBRK
  FIMP 

  CURV 0.0 0 0.0 0.0 0
  HIDE 0 0 0 0 0 0 0 0 0 0
  MIRR 2 0
  SLAB 36
  PARM 1 0
  PARM 2 0
  PARM 3 0
  PARM 4 0
  PARM 5 0
  PARM 6 0
  DISZ 444.57325929199942
  DIAM 0 0 0 0 1 ""
  MEMA 0 0 0 0 1 ""
  POPS 0 0 0 0 0 0 0 0 1 1 1 1 0 0 0 0
SURF 33
  SSID 56
  TYPE COORDBRK
  FIMP 

  CURV 0.0 0 0.0 0.0 0
  HIDE 0 0 0 0 0 0 0 0 0 0
  MIRR 2 0
  SLAB 37
  PARM 1 0
  PARM 2 0
  PARM 3 -8.0001999999999995
  PPAR 3 30 -1.000000000000E+00 0.000000000000E+00 0
  PARM 4 0
  PARM 5 0
  PARM 6 0
  DISZ 0
  DIAM 0 0 0 0 1 ""
  MEMA 0 0 0 0 1 ""
  POPS 0 0 0 0 0 0 0 0 1 1 1 1 0 0 0 0
SURF 34
  SSID 57
  COMM M2 PTT
  TYPE STANDARD
  FIMP 

  CURV 0.0 0 0 0 0 ""
  HIDE 0 0 0 0 0 0 0 0 0 0
  MIRR 1 82.75
  SLAB 38
  DISZ 0
  GLAS MIRROR 0 0 1.5 40 0 0 0 0 0 0 
  DIAM 26.25 1 0 0 1 ""
  MEMA 26.25 0 0 0 1 ""
  POPS 0 0 0 0 0 0 0 0 1 1 1 1 0 0 0 0
  SQAP 27.760000000000002 27.760000000000002 0
SURF 35
  SSID 58
  TYPE COORDBRK
  FIMP 

  CURV 0.0 0 0.0 0.0 0
  HIDE 0 0 0 0 0 0 0 0 0 0
  MIRR 2 0
  SLAB 39
  PARM 1 0
  PARM 2 0
  PARM 3 -8.0001999999999995
  PPAR 3 33 1.000000000000E+00 0.000000000000E+00 0
  PARM 4 0
  PARM 5 0
  PARM 6 0
  DISZ -368.46575228904334
  DIAM 0 0 0 0 1 ""
  MEMA 0 0 0 0 1 ""
  POPS 0 0 0 0 0 0 0 0 1 1 1 1 0 0 0 0
SURF 36
  SSID 59
  TYPE COORDBRK
  FIMP 

  CURV 0.0 0 0.0 0.0 0
  HIDE 0 0 0 0 0 0 0 0 0 0
  MIRR 2 0
  SLAB 40
  PARM 1 0
  PARM 2 0
  PARM 3 0
  PARM 4 0
  PARM 5 180
  PARM 6 0
  DISZ -1.9782
  DIAM 0 0 0 0 1 ""
  MEMA 0 0 0 0 1 ""
  POPS 0 0 0 0 0 0 0 0 1 1 1 1 0 0 0 0
SURF 37
  SSID 60
  COMM OAP2-D
  TYPE IRREGULA
  FIMP 

  CURV 1.235957972485103498E-03 0 46 1 0 ""
  HIDE 0 0 0 0 0 0 0 0 0 0
  MIRR 1 30
  SLAB 41
  PARM 1 0
  PARM 2 56.578499999999998
  PPAR 2 22 -1.000000000000E+00 0.000000000000E+00 0
  PARM 3 0
  PARM 4 0
  PARM 5 0
  PARM 6 0
  PARM 7 0
  PARM 8 0
  DISZ 1.9782
  GLAS MIRROR 0 0 1.5 40 0 0 0 0 0 0 
  CONI -1
  DIAM 50.799999999999997 1 0 0 1 ""
  MEMA 50.799999999999997 2 22 0 1 ""
  POPS 0 0 0 0 0 0 0 0 1 1 1 1 0 0 0 0
  CLAP 0 50.799999999999997 0
SURF 38
  SSID 61
  TYPE COORDBRK
  FIMP 

  CURV 0.0 0 0.0 0.0 0
  HIDE 0 0 0 0 0 0 0 0 0 0
  MIRR 2 0
  SLAB 42
  PARM 1 0
  PARM 2 0
  PARM 3 -8.0001999999999995
  PPAR 3 21 -1.000000000000E+00 0.000000000000E+00 0
  PARM 4 0
  PARM 5 0
  PARM 6 0
  DISZ 602.97469999999998
  DIAM 0 0 0 0 1 ""
  MEMA 0 0 0 0 1 ""
  POPS 0 0 0 0 0 0 0 0 1 1 1 1 0 0 0 0
SURF 39
  SSID 63
  TYPE COORDBRK
  FIMP 

  CURV 0.0 0 0.0 0.0 0
  HIDE 0 0 0 0 0 0 0 0 0 0
  MIRR 2 0
  SLAB 1
  PARM 1 0
  PARM 2 0
  PARM 3 20.875
  PARM 4 0
  PARM 5 0
  PARM 6 0
  DISZ 6.4470000000000001
  DIAM 0 0 0 0 1 ""
  MEMA 0 0 0 0 1 ""
  POPS 0 0 0 0 0 0 0 0 1 1 1 1 0 0 0 0
SURF 40
  SSID 64
  COMM OAP3-A
  TYPE IRREGULA
  FIMP 

  CURV -2.631578947368420993E-03 0 0 0 0 ""
  HIDE 0 0 0 0 0 0 0 0 0 0
  MIRR 1 25
  SLAB 3
  PARM 1 0
  PARM 2 -70
  PARM 3 0
  PARM 4 0
  PARM 5 0
  PARM 6 0
  PARM 7 0
  PARM 8 0
  DISZ -6.4470000000000001
  GLAS MIRROR 0 0 1.5 40 0 0 0 0 0 0 
  CONI -1
  DIAM 38.100000000000001 1 0 0 1 ""
  MEMA 38.100000000000001 1 0 0 1 ""
  POPS 0 0 0 0 0 0 0 0 1 1 1 1 0 0 0 0
  CLAP 0 38.100000000000001 0
SURF 41
  SSID 65
  TYPE COORDBRK
  FIMP 

  CURV 0.0 0 0.0 0.0 0
  HIDE 0 0 0 0 0 0 0 0 0 0
  MIRR 2 0
  SLAB 17
  PARM 1 0
  PARM 2 0
  PARM 3 0
  PARM 4 -0
  PARM 5 0
  PARM 6 0
  DISZ -196.3456934242985
  DIAM 0 0 0 0 1 ""
  MEMA 0 0 0 0 1 ""
  POPS 0 0 0 0 0 0 0 0 1 1 1 1 0 0 0 0
SURF 42
  SSID 67
  TYPE COORDBRK
  FIMP 

  CURV 0.0 0 0.0 0.0 0
  HIDE 0 0 0 0 0 0 0 0 0 0
  MIRR 2 0
  SLAB 2
  PARM 1 0
  PARM 2 0
  PARM 3 -20.875
  PARM 4 0
  PARM 5 0
  PARM 6 0
  DISZ 0
  DIAM 0 0 0 0 1 ""
  MEMA 0 0 0 0 1 ""
  POPS 0 0 0 0 0 0 0 0 1 1 1 1 0 0 0 0
SURF 43
  SSID 68
  COMM M1 DM
  TYPE STANDARD
  FIMP 

  CURV 0.0 0 0 0 0 ""
  HIDE 0 0 0 0 0 0 0 0 0 0
  MIRR 2 82
  SLAB 5
  DISZ 0
  GLAS MIRROR 0 0 1.5 40 0 0 0 0 0 0 
  DIAM 13.015410707174347 0 0 0 1 ""
  MEMA 13.015410707174347 0 0 0 1 ""
  POPS 0 0 0 0 0 0 0 0 1 1 1 1 0 0 0 0
  SQAP 55 35 0
SURF 44
  SSID 69
  TYPE COORDBRK
  FIMP 

  CURV 0.0 0 0.0 0.0 0
  HIDE 0 0 0 0 0 0 0 0 0 0
  MIRR 2 0
  SLAB 91
  PARM 1 0
  PARM 2 0
  PARM 3 -20.875
  PPAR 3 42 1.000000000000E+00 0.000000000000E+00 0
  PARM 4 -0
  PARM 5 0
  PARM 6 0
  DISZ 196.35432518381634
  DIAM 0 0 0 0 1 ""
  MEMA 0 0 0 0 1 ""
  POPS 0 0 0 0 0 0 0 0 1 1 1 1 0 0 0 0
SURF 45
  SSID 70
  TYPE COORDBRK
  FIMP 

  CURV 0.0 0 0.0 0.0 0
  HIDE 0 0 0 0 0 0 0 0 0 0
  MIRR 2 0
  SLAB 7
  PARM 1 0
  PARM 2 0
  PARM 3 0
  PARM 4 0
  PARM 5 180
  PARM 6 0
  DISZ 6.4470000000000001
  DIAM 0 0 0 0 1 ""
  MEMA 0 0 0 0 1 ""
  POPS 0 0 0 0 0 0 0 0 1 1 1 1 0 0 0 0
SURF 46
  SSID 71
  COMM OAP3-B
  TYPE IRREGULA
  FIMP 

  CURV -2.631578947368420993E-03 0 56 1 0 ""
  HIDE 0 0 0 0 0 0 0 0 0 0
  MIRR 1 25
  SLAB 8
  PARM 1 0
  PARM 2 -70
  PARM 3 0
  PARM 4 0
  PARM 5 0
  PARM 6 0
  PARM 7 0
  PARM 8 0
  DISZ -6.4470000000000001
  GLAS MIRROR 0 0 1.5 40 0 0 0 0 0 0 
  CONI -1
  DIAM 38.100000000000001 1 0 0 1 ""
  MEMA 38.100000000000001 2 40 0 1 ""
  POPS 0 0 0 0 0 0 0 0 1 1 1 1 0 0 0 0
  CLAP 0 38.100000000000001 0
SURF 47
  SSID 72
  TYPE COORDBRK
  FIMP 

  CURV 0.0 0 0.0 0.0 0
  HIDE 0 0 0 0 0 0 0 0 0 0
  MIRR 2 0
  SLAB 9
  PARM 1 0
  PARM 2 0
  PARM 3 -20.875
  PPAR 3 39 -1.000000000000E+00 0.000000000000E+00 0
  PARM 4 0
  PARM 5 0
  PARM 6 0
  DISZ -392.89400000000001
  DIAM 0 0 0 0 1 ""
  MEMA 0 0 0 0 1 ""
  POPS 0 0 0 0 0 0 0 0 1 1 1 1 0 0 0 0
SURF 48
  SSID 74
  TYPE COORDBRK
  FIMP 

  CURV 0.0 0 0.0 0.0 0
  HIDE 0 0 0 0 0 0 0 0 0 0
  MIRR 2 0
  SLAB 14
  PARM 1 0
  PARM 2 0
  PARM 3 20.875
  PPAR 3 39 1.000000000000E+00 0.000000000000E+00 0
  PARM 4 0
  PARM 5 0
  PARM 6 0
  DISZ -6.4470000000000001
  DIAM 0 0 0 0 1 ""
  MEMA 0 0 0 0 1 ""
  POPS 0 0 0 0 0 0 0 0 1 1 1 1 0 0 0 0
SURF 49
  SSID 75
  COMM OAP3-C
  TYPE IRREGULA
  FIMP 

  CURV 2.631578947368420993E-03 0 56 -1 0 ""
  HIDE 0 0 0 0 0 0 0 0 0 0
  MIRR 1 25
  SLAB 15
  PARM 1 0
  PARM 2 70
  PARM 3 0
  PARM 4 0
  PARM 5 0
  PARM 6 0
  PARM 7 0
  PARM 8 0
  DISZ 6.4470000000000001
  GLAS MIRROR 0 0 1.5 40 0 0 0 0 0 0 
  CONI -1
  DIAM 38.100000000000001 1 0 0 1 ""
  MEMA 38.100000000000001 2 40 0 1 ""
  POPS 0 0 0 0 0 0 0 0 1 1 1 1 0 0 0 0
  CLAP 0 38.100000000000001 0
SURF 50
  SSID 76
  TYPE COORDBRK
  FIMP 

  CURV 0.0 0 0.0 0.0 0
  HIDE 0 0 0 0 0 0 0 0 0 0
  MIRR 2 0
  SLAB 16
  PARM 1 0
  PARM 2 0
  PARM 3 0
  PARM 4 0
  PARM 5 0
  PARM 6 0
  DISZ 205.06398716282081
  DIAM 0 0 0 0 1 ""
  MEMA 0 0 0 0 1 ""
  POPS 0 0 0 0 0 0 0 0 1 1 1 1 0 0 0 0
SURF 51
  SSID 77
  TYPE COORDBRK
  FIMP 

  CURV 0.0 0 0.0 0.0 0
  HIDE 0 0 0 0 0 0 0 0 0 0
  MIRR 2 0
  SLAB 4
  PARM 1 0
  PARM 2 0
  PARM 3 -20.875
  PARM 4 0
  PARM 5 0
  PARM 6 0
  DISZ 0
  DIAM 0 0 0 0 1 ""
  MEMA 0 0 0 0 1 ""
  POPS 0 0 0 0 0 0 0 0 1 1 1 1 0 0 0 0
SURF 52
  SSID 79
  COMM M2 DM
  TYPE STANDARD
  FIMP 

  CURV -0.0 0 0 0 0 ""
  HIDE 0 0 0 0 0 0 0 0 0 0
  MIRR 2 82
  SLAB 18
  DISZ 0
  GLAS MIRROR 0 0 1.5 40 0 0 0 0 0 0 
  DIAM 65.200000000000003 1 0 0 1 ""
  MEMA 65.200000000000003 0 0 0 1 ""
  POPS 0 0 0 0 0 0 0 0 1 1 1 1 0 0 0 0
  SQAP 55 35 43
SURF 53
  SSID 80
  TYPE COORDBRK
  FIMP 

  CURV 0.0 0 0.0 0.0 0
  HIDE 0 0 0 0 0 0 0 0 0 0
  MIRR 2 0
  SLAB 91
  PARM 1 0
  PARM 2 0
  PARM 3 -20.875
  PARM 4 -0
  PARM 5 0
  PARM 6 0
  DISZ -187.81012714913285
  DIAM 0 0 0 0 1 ""
  MEMA 0 0 0 0 1 ""
  POPS 0 0 0 0 0 0 0 0 1 1 1 1 0 0 0 0
SURF 54
  SSID 81
  TYPE COORDBRK
  FIMP 

  CURV 0.0 0 0.0 0.0 0
  HIDE 0 0 0 0 0 0 0 0 0 0
  MIRR 2 0
  SLAB 7
  PARM 1 0
  PARM 2 0
  PARM 3 0
  PARM 4 0
  PARM 5 180
  PARM 6 0
  DISZ -6.4470000000000001
  DIAM 0 0 0 0 1 ""
  MEMA 0 0 0 0 1 ""
  POPS 0 0 0 0 0 0 0 0 1 1 1 1 0 0 0 0
SURF 55
  SSID 82
  COMM OAP3-D
  TYPE IRREGULA
  FIMP 

  CURV 2.631578947368420993E-03 0 60 1 0 ""
  HIDE 0 0 0 0 0 0 0 0 0 0
  MIRR 1 25
  SLAB 20
  PARM 1 0
  PARM 2 70
  PPAR 2 46 -1.000000000000E+00 0.000000000000E+00 0
  PARM 3 0
  PARM 4 0
  PARM 5 0
  PARM 6 0
  PARM 7 0
  PARM 8 0
  DISZ 6.4470000000000001
  GLAS MIRROR 0 0 1.5 40 0 0 0 0 0 0 
  CONI -1
  DIAM 38.100000000000001 1 0 0 1 ""
  MEMA 38.100000000000001 2 40 0 1 ""
  POPS 0 0 0 0 0 0 0 0 1 1 1 1 0 0 0 0
  CLAP 0 38.100000000000001 0
SURF 56
  SSID 83
  TYPE COORDBRK
  FIMP 

  CURV 0.0 0 0.0 0.0 0
  HIDE 0 0 0 0 0 0 0 0 0 0
  MIRR 2 0
  SLAB 21
  PARM 1 0
  PARM 2 0
  PARM 3 -20.875
  PPAR 3 39 -1.000000000000E+00 0.000000000000E+00 0
  PARM 4 0
  PARM 5 0
  PARM 6 0
  DISZ 846.447
  DIAM 0 0 0 0 1 ""
  MEMA 0 0 0 0 1 ""
  POPS 0 0 0 0 0 0 0 0 1 1 1 1 0 0 0 0
SURF 57
  SSID 85
  TYPE COORDBRK
  FIMP 

  CURV 0.0 0 0.0 0.0 0
  HIDE 0 0 0 0 0 0 0 0 0 0
  MIRR 2 0
  SLAB 75
  PARM 1 0
  PARM 2 0
  PARM 3 12
  PARM 4 0
  PARM 5 0
  PARM 6 0
  DISZ 0
  DIAM 0 0 0 0 1 ""
  MEMA 0 0 0 0 1 ""
  POPS 0 0 0 0 0 0 0 0 1 1 1 1 0 0 0 0
SURF 58
  SSID 86
  COMM FM3
  TYPE STANDARD
  FIMP 

  CURV 0.0 0 0 0 0 ""
  HIDE 0 0 0 0 0 0 0 0 0 0
  MIRR 2 23.5
  SLAB 77
  DISZ 0
  GLAS MIRROR 0 0 1.5 40 0 0 0 0 0 0 
  DIAM 51.494402334766342 0 0 0 1 ""
  MEMA 51.494402334766342 0 0 0 1 ""
  POPS 0 0 0 0 0 0 0 0 1 1 1 1 0 0 0 0
SURF 59
  SSID 87
  TYPE COORDBRK
  FIMP 

  CURV 0.0 0 0.0 0.0 0
  HIDE 0 0 0 0 0 0 0 0 0 0
  MIRR 2 0
  SLAB 76
  PARM 1 0
  PARM 2 0
  PARM 3 12
  PPAR 3 57 1.000000000000E+00 0.000000000000E+00 0
  PARM 4 0
  PARM 5 0
  PARM 6 0
  DISZ -755.46800000000007
  DIAM 0 0 0 0 1 ""
  MEMA 0 0 0 0 1 ""
  POPS 0 0 0 0 0 0 0 0 1 1 1 1 0 0 0 0
SURF 60
  SSID 90
  TYPE COORDBRK
  FIMP 

  CURV 0.0 0 0.0 0.0 0
  HIDE 0 0 0 0 0 0 0 0 0 0
  MIRR 2 0
  SLAB 63
  PARM 1 0
  PARM 2 175
  PARM 3 0
  PARM 4 0
  PARM 5 0
  PARM 6 0
  DISZ 0
  DIAM 0 0 0 0 1 ""
  MEMA 0 0 0 0 1 ""
  POPS 0 0 0 0 0 0 0 0 1 1 1 1 0 0 0 0
SURF 61
  SSID 91
  COMM OFF1-A
  TYPE STANDARD
  FIMP 

  CURV 7.142857142857142851E-04 0 0 0 0 ""
  HIDE 0 0 0 0 0 0 0 0 0 0
  MIRR 2 50
  SLAB 62
  DISZ 694.39840845100002
  GLAS MIRROR 0 0 1.5 40 0 0 0 0 0 0 
  DIAM 269.76142797593627 0 0 0 1 ""
  MEMA 269.76142797593627 0 0 0 1 ""
  POPS 0 0 0 0 0 0 0 0 1 1 1 1 0 0 0 0
SURF 62
  SSID 93
  COMM OFF2
  TYPE STANDARD
  FIMP 

  CURV 1.428571428571428570E-03 0 83 2 0 ""
  HIDE 0 0 0 0 0 0 0 0 0 0
  MIRR 1 25
  SLAB 65
  DISZ -694.39840845100002
  GLAS MIRROR 0 0 1.5 40 0 0 0 0 0 0 
  DIAM 43.637395311092938 0 0 0 1 ""
  MEMA 43.637395311092938 0 0 0 1 ""
  POPS 0 0 0 0 0 0 0 0 1 1 1 1 0 0 0 0
SURF 63
  SSID 95
  COMM OFF1-B
  TYPE STANDARD
  FIMP 

  CURV 7.142857142857142851E-04 0 83 1 0 ""
  HIDE 0 0 0 0 0 0 0 0 0 0
  MIRR 2 50
  SLAB 67
  DISZ 0
  GLAS MIRROR 0 0 1.5 40 0 0 0 0 0 0 
  DIAM 268.50100801527657 0 0 0 1 ""
  MEMA 268.50100801527657 0 0 0 1 ""
  POPS 0 0 0 0 0 0 0 0 1 1 1 1 0 0 0 0
SURF 64
  SSID 96
  COMM Offset to Beam Center from OFF1B
  TYPE COORDBRK
  FIMP 

  CURV 0.0 0 0.0 0.0 0
  HIDE 0 0 0 0 0 0 0 0 0 0
  MIRR 2 0
  SLAB 68
  PARM 1 0
  PARM 2 175
  PPAR 2 60 1.000000000000E+00 0.000000000000E+00 0
  PARM 3 0
  PARM 4 0
  PARM 5 0
  PARM 6 0
  DISZ 695.75999999999999
  DIAM 0 0 0 0 1 ""
  MEMA 0 0 0 0 1 ""
  POPS 0 0 0 0 0 0 0 0 1 1 1 1 0 0 0 0
SURF 65
  SSID 39162
  TYPE COORDBRK
  FIMP 

  CURV 0.0 0 0.0 0.0 0
  HIDE 0 0 0 0 0 0 0 0 0 0
  MIRR 2 0
  SLAB 66
  PARM 1 0
  PARM 2 0
  PARM 3 0
  PARM 4 45
  PARM 5 0
  PARM 6 0
  DISZ 0
  DIAM 0 0 0 0 1 ""
  MEMA 0 0 0 0 1 ""
  POPS 0 0 0 0 0 0 0 0 1 1 1 1 0 0 0 0
SURF 66
  SSID 39161
  TYPE STANDARD
  FIMP 

  CURV 0.0 0 0 0 0 ""
  HIDE 0 0 0 0 0 0 0 0 0 0
  MIRR 2 0
  SLAB 10
  DISZ 0
  GLAS MIRROR 0 0 1.5 40 0 0 0 0 0 0 
  DIAM 80.032223413955009 0 0 0 1 ""
  MEMA 80.032223413955009 0 0 0 1 ""
  POPS 0 0 0 0 0 0 0 0 1 1 1 1 0 0 0 0
SURF 67
  SSID 39163
  TYPE COORDBRK
  FIMP 

  CURV 0.0 0 0.0 0.0 0
  HIDE 0 0 0 0 0 0 0 0 0 0
  MIRR 2 0
  SLAB 69
  PARM 1 0
  PARM 2 0
  PARM 3 -0
  PARM 4 45
  PPAR 4 65 1.000000000000E+00 0.000000000000E+00 0
  PARM 5 0
  PARM 6 0
  DISZ -189.69999999999999
  DIAM 0 0 0 0 1 ""
  MEMA 0 0 0 0 1 ""
  POPS 0 0 0 0 0 0 0 0 1 1 1 1 0 0 0 0
SURF 68
  SSID 39164
  COMM Window
  TYPE STANDARD
  FIMP 

  CURV -0.0 0 0 0 0 ""
  HIDE 0 0 0 0 0 0 0 0 0 0
  MIRR 2 0
  SLAB 70
  DISZ -12
  GLAS F_SILICA 0 0 1.5 40 0 0 0 0 0 0 
  DIAM 41.701271459297395 0 0 0 1 ""
  MEMA 41.701271459297395 0 0 0 1 ""
  POPS 0 0 0 0 0 0 0 0 1 1 1 1 0 0 0 0
SURF 69
  SSID 39165
  TYPE STANDARD
  FIMP 

  CURV -0.0 0 0 0 0 ""
  HIDE 0 0 0 0 0 0 0 0 0 0
  MIRR 2 0
  SLAB 71
  DISZ -58
  DIAM 41.199867652421389 0 0 0 1 ""
  MEMA 41.701271459297395 0 0 0 1 ""
  POPS 0 0 0 0 0 0 0 0 1 1 1 1 0 0 0 0
SURF 70
  SSID 39166
  TYPE COORDBRK
  FIMP 

  CURV 0.0 0 0.0 0.0 0
  HIDE 0 0 0 0 0 0 0 0 0 0
  MIRR 2 0
  SLAB 72
  PARM 1 0
  PARM 2 0
  PARM 3 -45
  PARM 4 -0
  PARM 5 0
  PARM 6 0
  DISZ -0
  DIAM 0 0 0 0 1 ""
  MEMA 0 0 0 0 1 ""
  POPS 0 0 0 0 0 0 0 0 1 1 1 1 0 0 0 0
SURF 71
  SSID 39167
  COMM Steering mirror
  TYPE STANDARD
  FIMP 

  CURV -0.0 0 0 0 0 ""
  HIDE 0 0 0 0 0 0 0 0 0 0
  MIRR 2 0
  SLAB 73
  DISZ -0
  GLAS MIRROR 0 0 1.5 40 0 0 0 0 0 0 
  DIAM 56.72244609569789 0 0 0 1 ""
  MEMA 56.72244609569789 0 0 0 1 ""
  POPS 0 0 0 0 0 0 0 0 1 1 1 1 0 0 0 0
SURF 72
  SSID 39168
  TYPE COORDBRK
  FIMP 

  CURV 0.0 0 0.0 0.0 0
  HIDE 0 0 0 0 0 0 0 0 0 0
  MIRR 2 0
  SLAB 74
  PARM 1 0
  PARM 2 0
  PARM 3 -45
  PPAR 3 70 1.000000000000E+00 0.000000000000E+00 0
  PARM 4 -0
  PARM 5 0
  PARM 6 0
  DISZ 140
  DIAM 0 0 0 0 1 ""
  MEMA 0 0 0 0 1 ""
  POPS 0 0 0 0 0 0 0 0 1 1 1 1 0 0 0 0
SURF 73
  SSID 39169
  TYPE STANDARD
  FIMP 

  CURV 0.0 0 0 0 0 ""
  HIDE 0 0 0 0 0 0 0 0 0 0
  MIRR 2 0
  SLAB 78
  DISZ 313.75
  DIAM 29.125411545428083 0 0 0 1 ""
  MEMA 29.125411545428083 0 0 0 1 ""
  POPS 0 0 0 0 0 0 0 0 1 1 1 1 0 0 0 0
SURF 74
  SSID 39279
  COMM Focus
  TYPE STANDARD
  FIMP 

  CURV -0.0 0 0 0 0 ""
  HIDE 0 0 0 0 0 0 0 0 0 0
  MIRR 2 0
  SLAB 79
  DISZ 25
  DIAM 10.002871230346988 0 0 0 1 ""
  MEMA 10.002871230346988 0 0 0 1 ""
  POPS 0 0 0 0 0 0 0 0 1 1 1 1 0 0 0 0
SURF 75
  SSID 39280
  TYPE COORDBRK
  FIMP 

  CURV 0.0 0 0.0 0.0 0
  HIDE 0 0 0 0 0 0 0 0 0 0
  MIRR 2 0
  SLAB 83
  PARM 1 0
  PARM 2 0
  PARM 3 -45
  PARM 4 -0
  PARM 5 0
  PARM 6 0
  DISZ -0
  DIAM 0 0 0 0 1 ""
  MEMA 0 0 0 0 1 ""
  POPS 0 0 0 0 0 0 0 0 1 1 1 1 0 0 0 0
SURF 76
  SSID 39281
  COMM B/S
  TYPE STANDARD
  FIMP 

  CURV 0.0 0 0 0 0 ""
  HIDE 0 0 0 0 0 0 0 0 0 0
  MIRR 2 0
  SLAB 84
  DISZ -0
  GLAS MIRROR 0 0 1.5 40 0 0 0 0 0 0 
  DIAM 12.699999999999999 1 0 0 1 ""
  MEMA 12.699999999999999 0 0 0 1 ""
  POPS 0 0 0 0 0 0 0 0 1 1 1 1 0 0 0 0
  FLAP 0 12.699999999999999 0
SURF 77
  SSID 39282
  TYPE COORDBRK
  FIMP 

  CURV 0.0 0 0.0 0.0 0
  HIDE 0 0 0 0 0 0 0 0 0 0
  MIRR 2 0
  SLAB 85
  PARM 1 0
  PARM 2 0
  PARM 3 -45
  PPAR 3 75 1.000000000000E+00 0.000000000000E+00 0
  PARM 4 -0
  PARM 5 0
  PARM 6 0
  DISZ -70
  DIAM 0 0 0 0 1 ""
  MEMA 0 0 0 0 1 ""
  POPS 0 0 0 0 0 0 0 0 1 1 1 1 0 0 0 0
SURF 78
  SSID 39283
  TYPE COORDBRK
  FIMP 

  CURV 0.0 0 0.0 0.0 0
  HIDE 0 0 0 0 0 0 0 0 0 0
  MIRR 2 0
  SLAB 89
  PARM 1 0
  PARM 2 0
  PARM 3 -0
  PARM 4 -45
  PARM 5 0
  PARM 6 0
  DISZ -0
  DIAM 0 0 0 0 1 ""
  MEMA 0 0 0 0 1 ""
  POPS 0 0 0 0 0 0 0 0 1 1 1 1 0 0 0 0
SURF 79
  SSID 39284
  COMM F1
  TYPE STANDARD
  FIMP 

  CURV 0.0 0 0 0 0 ""
  HIDE 0 0 0 0 0 0 0 0 0 0
  MIRR 2 0
  SLAB 90
  DISZ -0
  GLAS MIRROR 0 0 1.5 40 0 0 0 0 0 0 
  DIAM 23.94768227380299 0 0 0 1 ""
  MEMA 23.94768227380299 0 0 0 1 ""
  POPS 0 0 0 0 0 0 0 0 1 1 1 1 0 0 0 0
  ELAP 25 20 0
SURF 80
  SSID 39285
  TYPE COORDBRK
  FIMP 

  CURV 0.0 0 0.0 0.0 0
  HIDE 0 0 0 0 0 0 0 0 0 0
  MIRR 2 0
  SLAB 92
  PARM 1 0
  PARM 2 0
  PARM 3 0
  PPAR 3 78 1.000000000000E+00 0.000000000000E+00 0
  PARM 4 -45
  PPAR 4 78 1.000000000000E+00 0.000000000000E+00 0
  PARM 5 0
  PPAR 5 78 1.000000000000E+00 0.000000000000E+00 0
  PARM 6 0
  DISZ 197
  DIAM 0 0 0 0 1 ""
  MEMA 0 0 0 0 1 ""
  POPS 0 0 0 0 0 0 0 0 1 1 1 1 0 0 0 0
SURF 81
  SSID 39286
  TYPE COORDBRK
  FIMP 

  CURV 0.0 0 0.0 0.0 0
  HIDE 0 0 0 0 0 0 0 0 0 0
  MIRR 2 0
  SLAB 93
  PARM 1 0
  PARM 2 0
  PARM 3 -45
  PARM 4 -0
  PARM 5 0
  PARM 6 0
  DISZ -0