VERS 200121 89 104749 L104749
MODE SEQ
NAME 
PFIL 0 0 0
LANG 0
UNIT MM X W X CM MR CPMM
ENPD 10
ENVD 20 1 0
GFAC 0 0
GCAT SCHOTT 
RAIM 0 0 1 1 0 0 0 0 0 1
PUSH 0 0 0 0 0 0
SDMA 0 1 0
OMMA 1 1
FTYP 0 0 1 1 0 0 0 1
ROPD 2
HYPR 0
PICB 1
XFLN 0
YFLN 0
FWGN 1
VDXN 0
VDYN 0
VCXN 0
VCYN 0
VANN 0
WAVM 1 0.55000000000000004 1
WAVM 2 0.55000000000000004 1
WAVM 3 0.55000000000000004 1
WAVM 4 0.55000000000000004 1
WAVM 5 0.55000000000000004 1
WAVM 6 0.55000000000000004 1
WAVM 7 0.55000000000000004 1
WAVM 8 0.55000000000000004 1
WAVM 9 0.55000000000000004 1
WAVM 10 0.55000000000000004 1
WAVM 11 0.55000000000000004 1
WAVM 12 0.55000000000000004 1
WAVM 13 0.55000000000000004 1
WAVM 14 0.55000000000000004 1
WAVM 15 0.55000000000000004 1
WAVM 16 0.55000000000000004 1
WAVM 17 0.55000000000000004 1
WAVM 18 0.55000000000000004 1
WAVM 19 0.55000000000000004 1
WAVM 20 0.55000000000000004 1
WAVM 21 0.55000000000000004 1
WAVM 22 0.55000000000000004 1
WAVM 23 0.55000000000000004 1
WAVM 24 0.55000000000000004 1
PWAV 1
POLS 1 0 1 0 0 1 0
GLRS 1 0
GSTD 0 100.000 100.000 100.000 100.000 100.000 100.000 0 1 1 0 0 1 1 1 1 1 1
NSCD 100 500 0 0.001 10 9.9999999999999995e-07 0 0 0 0 0 0 1000000 0 2
COFN QF "COATING.DAT" "SCATTER_PROFILE.DAT" "ABG_DATA.DAT" "PROFILE.GRD"
COFN COATING.DAT SCATTER_PROFILE.DAT ABG_DATA.DAT PROFILE.GRD
SURF 0
  TYPE STANDARD
  FIMP 

  CURV 0.0 0 0 0 0 ""
  HIDE 0 0 0 0 0 0 0 0 0 0
  MIRR 2 0
  SLAB 1
  DISZ INFINITY
  DIAM 0 0 0 0 1 ""
  MEMA 0 0 0 0 1 ""
  POPS 0 0 0 0 0 0 0 0 1 1 1 1 0 0 0 0
SURF 1
  STOP
  TYPE SZERNSAG
  FIMP 

  CURV -1.250000000000000069E-02 0 0 0 0 ""
  HIDE 0 0 0 0 0 0 0 0 0 0
  MIRR 2 0
  SLAB 2
  PARM 0 1
  PARM 1 0
  PARM 2 0
  PARM 3 0
  PARM 4 0
  PARM 5 0
  PARM 6 0
  PARM 7 0
  PARM 8 0
  PARM 9 0
  PARM 10 2
  XDAT 1 1.100000000000E+01 0 0 1.000000000000E+00 0.000000000000E+00 0 ""
  XDAT 2 5.000000000000E+00 0 0 1.000000000000E+00 0.000000000000E+00 0 ""
  XDAT 3 0.000000000000E+00 0 0 1.000000000000E+00 0.000000000000E+00 0 ""
  XDAT 4 0.000000000000E+00 0 0 1.000000000000E+00 0.000000000000E+00 0 ""
  XDAT 5 0.000000000000E+00 0 0 1.000000000000E+00 0.000000000000E+00 0 ""
  XDAT 6 0.000000000000E+00 0 0 1.000000000000E+00 0.000000000000E+00 0 ""
  XDAT 7 0.000000000000E+00 0 0 1.000000000000E+00 0.000000000000E+00 0 ""
  XDAT 8 0.000000000000E+00 0 0 1.000000000000E+00 0.000000000000E+00 0 ""
  XDAT 9 0.000000000000E+00 0 0 1.000000000000E+00 0.000000000000E+00 0 ""
  XDAT 10 0.000000000000E+00 0 0 1.000000000000E+00 0.000000000000E+00 0 ""
  XDAT 11 0.000000000000E+00 0 0 1.000000000000E+00 0.000000000000E+00 0 ""
  XDAT 12 0.000000000000E+00 0 0 1.000000000000E+00 0.000000000000E+00 0 ""
  XDAT 13 1.000000000000E-03 0 0 1.000000000000E+00 0.000000000000E+00 0 ""
  DISZ -40
  GLAS MIRROR 0 0 1.5 40 0 0 0 0 0 0 
  CONI -1
  DIAM 5 0 0 0 1 ""
  MEMA 5 0 0 0 1 ""
  POPS 0 0 0 0 0 0 0 0 1 1 1 1 0 0 0 0
SURF 2
  TYPE STANDARD
  FIMP 

  CURV 0.0 0 0 0 0 ""
  HIDE 0 0 0 0 0 0 0 0 0 0
  MIRR 2 0
  SLAB 3
  DISZ 0
  DIAM 1.7601967505084564 0 0 0 1 ""
  MEMA 1.7601967505084564 0 0 0 1 ""
  POPS 0 0 0 0 0 0 0 0 1 1 1 1 0 0 0 0
BLNK 
TOL TOFF   0   0 0.0000000000000000E+00 0.0000000000000000E+00   0 0 0 0 0
MNUM 1 1
MOFF   0   1 "" 0 0 0 1 1 0 0.0 "" 0
