VERS 200121 173 104749 L104749
MODE SEQ
NAME 
PFIL 0 0 0
LANG 0
UNIT METER X W X CM MR CPMM
ENPD 0.029999999999999999
ENVD 20 1 0
GFAC 0 0
GCAT SCHOTT MISC 
RAIM 0 0 1 1 0 0 0 0 0 1
PUSH 0 0 0 0 0 0
SDMA 0 1 0
OMMA 1 1
FTYP 0 0 1 3 0 0 0 1
ROPD 2
HYPR 0
PICB 1
XFLN 0
YFLN 0
FWGN 1
VDXN 0
VDYN 0
VCXN 0
VCYN 0
VANN 0
WAVM 1 0.64000000000000001 1
WAVM 2 0.55000000000000004 1
WAVM 3 0.65000000000000002 1
WAVM 4 0.55000000000000004 1
WAVM 5 0.55000000000000004 1
WAVM 6 0.55000000000000004 1
WAVM 7 0.55000000000000004 1
WAVM 8 0.55000000000000004 1
WAVM 9 0.55000000000000004 1
WAVM 10 0.55000000000000004 1
WAVM 11 0.55000000000000004 1
WAVM 12 0.55000000000000004 1
WAVM 13 0.55000000000000004 1
WAVM 14 0.55000000000000004 1
WAVM 15 0.55000000000000004 1
WAVM 16 0.55000000000000004 1
WAVM 17 0.55000000000000004 1
WAVM 18 0.55000000000000004 1
WAVM 19 0.55000000000000004 1
WAVM 20 0.55000000000000004 1
WAVM 21 0.55000000000000004 1
WAVM 22 0.55000000000000004 1
WAVM 23 0.55000000000000004 1
WAVM 24 0.55000000000000004 1
PWAV 1
POLS 1 0 1 0 0 1 0
GLRS 1 0
GSTD 0 100.000 100.000 100.000 100.000 100.000 100.000 0 1 1 0 0 1 1 1 1 1 1
NSCD 100 500 0 0.001 10 9.9999999999999995e-07 0 0 0 0 0 0 1000000 0 2
COFN QF "COATING.DAT" "SCATTER_PROFILE.DAT" "ABG_DATA.DAT" "PROFILE.GRD"
COFN COATING.DAT SCATTER_PROFILE.DAT ABG_DATA.DAT PROFILE.GRD
SURF 0
  TYPE STANDARD
  FIMP 

  CURV 0.0 0 0 0 0 ""
  HIDE 0 0 0 0 0 0 0 0 0 0
  MIRR 2 0
  SLAB 9
  DISZ INFINITY
  DIAM 0 0 0 0 1 ""
  MEMA 0 0 0 0 1 ""
  POPS 0 0 0 0 0 0 0 0 1 1 1 1 0 0 0 0
SURF 1
  STOP
  TYPE STANDARD
  FIMP 

  CURV 0.0 0 0 0 0 ""
  HIDE 0 0 0 0 0 0 0 0 0 0
  MIRR 2 0
  SLAB 6
  DISZ 0.10000000000000001
  DIAM 0.014999999999999999 0 0 0 1 ""
  MEMA 0.014999999999999999 0 0 0 1 ""
  POPS 0 0 0 0 0 0 0 0 1 1 1 1 0 0 0 0
SURF 2
  TYPE STANDARD
  FIMP 

  CURV 1.000000000000000000E+01 0 0 0 0 ""
  HIDE 0 0 0 0 0 0 0 0 0 0
  MIRR 2 0
  SLAB 3
  DISZ 0.01
  GLAS BK7 0 0 1.5 0 0 0 0 0 0 0 
  CONI 0.29999999999999999
  DIAM 0.014999999999999999 0 0 0 1 ""
  MEMA 0.014999999999999999 0 0 0 1 ""
  POPS 0 0 0 0 0 0 0 0 1 1 1 1 0 0 0 0
SURF 3
  TYPE SZERNSAG
  FIMP 

  CURV -1.000000000000000000E+01 0 0 0 0 ""
  TCED 0.000000000000E+00 2 0
  HIDE 0 0 0 0 0 0 0 0 0 0
  MIRR 2 0
  SLAB 1
  PARM 0 1
  PARM 1 0
  PARM 2 0
  PARM 3 0
  PARM 4 0
  PARM 5 0
  PARM 6 0
  PARM 7 0
  PARM 8 0
  PARM 9 0
  PARM 10 0
  XDAT 1 1.000000000000E+01 0 0 1.000000000000E+00 0.000000000000E+00 0 ""
  XDAT 2 1.500000000000E-02 0 0 1.000000000000E+00 0.000000000000E+00 0 ""
  XDAT 3 0.000000000000E+00 0 0 1.000000000000E+00 0.000000000000E+00 0 ""
  XDAT 4 0.000000000000E+00 0 0 1.000000000000E+00 0.000000000000E+00 0 ""
  XDAT 5 0.000000000000E+00 0 0 1.000000000000E+00 0.000000000000E+00 0 ""
  XDAT 6 0.000000000000E+00 0 0 1.000000000000E+00 0.000000000000E+00 0 ""
  XDAT 7 0.000000000000E+00 0 0 1.000000000000E+00 0.000000000000E+00 0 ""
  XDAT 8 0.000000000000E+00 0 0 1.000000000000E+00 0.000000000000E+00 0 ""
  XDAT 9 1.000000000000E-05 0 0 1.000000000000E+00 0.000000000000E+00 0 ""
  XDAT 10 0.000000000000E+00 0 0 1.000000000000E+00 0.000000000000E+00 0 ""
  XDAT 11 0.000000000000E+00 0 0 1.000000000000E+00 0.000000000000E+00 0 ""
  XDAT 12 0.000000000000E+00 0 0 1.000000000000E+00 0.000000000000E+00 0 ""
  DISZ 0.095000000000000001
  DIAM 0.014999999999999999 1 0 0 1 ""
  MEMA 0.014999999999999999 0 0 0 1 ""
  POPS 0 0 0 0 0 0 0 0 1 1 1 1 0 0 0 0
  FLAP 0 0.014999999999999999 0
SURF 4
  TYPE STANDARD
  FIMP 

  CURV 0.0 0 0 0 0 ""
  HIDE 0 0 0 0 0 0 0 0 0 0
  MIRR 2 0
  SLAB 8
  DISZ 0
  DIAM 0.01 1 0 0 1 ""
  MEMA 0.01 0 0 0 1 ""
  POPS 0 0 0 0 0 0 0 0 1 1 1 1 0 0 0 0
BLNK 
TOL TOFF   0   0 0.0000000000000000E+00 0.0000000000000000E+00   0 0 0 0 0
MNUM 1 1
MOFF   0   1 "" 0 0 0 1 1 0 0.0 "" 0
